Version 4
SHEET 1 1664 780
WIRE -16 80 -80 80
WIRE 256 96 48 96
WIRE 480 96 256 96
WIRE 736 96 656 96
WIRE 1024 96 816 96
WIRE -240 176 -240 144
WIRE -80 208 -80 80
WIRE 256 208 256 176
WIRE 256 208 -80 208
WIRE 480 208 480 96
WIRE 656 208 656 96
WIRE 656 208 560 208
WIRE 256 256 256 208
WIRE 656 256 656 208
WIRE 832 256 656 256
WIRE 1024 272 1024 96
WIRE 1024 272 896 272
WIRE 1072 272 1024 272
WIRE 1216 272 1072 272
WIRE 1344 272 1296 272
WIRE 1392 272 1344 272
WIRE 1552 272 1472 272
WIRE 1600 272 1552 272
WIRE 832 288 640 288
WIRE -432 304 -432 144
WIRE -432 304 -480 304
WIRE 256 368 256 336
WIRE 256 368 -80 368
WIRE 640 384 640 288
WIRE 640 384 560 384
WIRE 688 384 640 384
WIRE 256 416 256 368
WIRE -432 432 -432 304
WIRE 688 496 688 464
WIRE -80 544 -80 368
WIRE -16 544 -80 544
WIRE 256 560 256 496
WIRE 256 560 48 560
WIRE 480 560 480 384
WIRE 480 560 256 560
WIRE -224 656 -224 608
FLAG -240 176 0
FLAG -224 656 0
FLAG 688 496 0
FLAG -480 304 0
FLAG -432 64 Vp
FLAG 864 240 Vp
FLAG 16 64 Vp
FLAG 16 528 Vp
FLAG -432 512 Vn
FLAG 864 304 Vn
FLAG 16 592 Vn
FLAG 16 128 Vn
FLAG -240 64 Vin-
FLAG -16 112 Vin-
FLAG -224 528 Vin+
FLAG -16 576 Vin+
FLAG 1072 272 Vamp
FLAG 1600 272 Vfilt
FLAG 1344 336 0
FLAG 1552 336 0
SYMBOL OpAmps\\UniversalOpAmp 16 96 R0
SYMATTR InstName U1
SYMBOL OpAmps\\UniversalOpAmp 16 560 R0
SYMATTR InstName U2
SYMBOL OpAmps\\UniversalOpAmp 864 272 R0
SYMATTR InstName U3
SYMBOL res 240 80 R0
SYMATTR InstName R1
SYMATTR Value 10k
SYMBOL res 240 240 R0
SYMATTR InstName R2
SYMATTR Value 10k
SYMBOL res 240 400 R0
SYMATTR InstName R3
SYMATTR Value 10k
SYMBOL res 576 192 R90
WINDOW 0 0 56 VBottom 2
WINDOW 3 32 56 VTop 2
SYMATTR InstName R4
SYMATTR Value 10k
SYMBOL res 576 368 R90
WINDOW 0 0 56 VBottom 2
WINDOW 3 32 56 VTop 2
SYMATTR InstName R6
SYMATTR Value 10k
SYMBOL res 832 80 R90
WINDOW 0 0 56 VBottom 2
WINDOW 3 32 56 VTop 2
SYMATTR InstName R7
SYMATTR Value 2.2k
SYMBOL res 672 368 R0
SYMATTR InstName R8
SYMATTR Value 2.2k
SYMBOL voltage -240 48 R0
WINDOW 123 0 0 Left 0
WINDOW 39 0 0 Left 0
SYMATTR InstName V1
SYMATTR Value 0
SYMBOL voltage -224 512 R0
WINDOW 123 0 0 Left 0
WINDOW 39 0 0 Left 0
SYMATTR InstName V2
SYMATTR Value SINE(5 0 10Hz)
SYMBOL voltage -432 48 R0
SYMATTR InstName V3
SYMATTR Value 5
SYMBOL voltage -432 416 R0
SYMATTR InstName V4
SYMATTR Value 5
SYMBOL res 1312 256 R90
WINDOW 0 0 56 VBottom 2
WINDOW 3 32 56 VTop 2
SYMATTR InstName R5
SYMATTR Value 32k
SYMBOL res 1488 256 R90
WINDOW 0 0 56 VBottom 2
WINDOW 3 32 56 VTop 2
SYMATTR InstName R9
SYMATTR Value 32k
SYMBOL cap 1328 272 R0
SYMATTR InstName C1
SYMATTR Value 1.0µF
SYMBOL cap 1536 272 R0
SYMATTR InstName C2
SYMATTR Value 1.0 uF
TEXT -272 680 Left 2 !.tran 0 3ms 0 1
